Circuit: * C:\Users\theac\OneDrive\Documents\GitHub\Lovers Rock\ltspice\Draft2.asc

Early termination of direct N-R iteration.
Direct Newton iteration failed to find .op point.  (Use ".option noopiter" to skip.)
Starting Gmin stepping
Gmin = 10
Gmin = 1.07374
Gmin = 0.115292
Gmin = 0.0123794
Gmin = 0.00132923
Gmin = 0.000142725
Gmin = 1.5325e-005
Gmin = 1.6455e-006
Gmin = 1.76685e-007
Gmin = 1.89714e-008
Gmin = 2.03704e-009
Gmin = 2.18725e-010
Gmin = 2.34854e-011
Gmin = 2.52173e-012
Gmin = 2.70769e-013
Gmin = 0
Gmin stepping succeeded in finding the operating point.

.step freq=150
.step freq=300
.step freq=500
.step freq=1000
.step freq=2000
.step freq=3000

Date: Sun Jun 07 23:11:32 2026
Total elapsed time: 2.377 seconds.

tnom = 27
temp = 27
method = modified trap
totiter = 11203
traniter = 10708
tranpoints = 3542
accept = 2581
rejected = 961
matrix size = 53
fillins = 174
solver = Normal
Thread vector: 29.4/12.9[4] 7.4/4.3[4] 5.5/4.0[4] 0.4/1.2[1]  2592/500
Matrix Compiler1:    1128 opcodes  5.8/[2.2]/2.3
Matrix Compiler2: 8.34 KB object code size  0.9/0.9/[0.8]

